
#======================================================================
# CRYSTAL DATA
#----------------------------------------------------------------------
data_VESTA_phase_1

_chemical_name_common                  'CH3NH3PbI3'
_cell_length_a                         8.748858
_cell_length_b                         8.748858
_cell_length_c                         12.102488
_cell_angle_alpha                      90.000000
_cell_angle_beta                       90.000000
_cell_angle_gamma                      87.075798
_cell_volume                           925.148738
_space_group_name_H-M_alt              'P 1'
_space_group_IT_number                 1

loop_
_space_group_symop_operation_xyz
   'x, y, z'

loop_
   _atom_site_label
   _atom_site_occupancy
   _atom_site_fract_x
   _atom_site_fract_y
   _atom_site_fract_z
   _atom_site_adp_type
   _atom_site_U_iso_or_equiv
   _atom_site_type_symbol
   Pb1        1.0     0.500000     0.000000     0.000000    Uiso  ? Pb
   Pb2        1.0     0.500000     0.000000     0.500000    Uiso  ? Pb
   Pb3        1.0     0.000000     0.500000     0.000000    Uiso  ? Pb
   Pb4        1.0     0.000000     0.500000     0.500000    Uiso  ? Pb
   I1         1.0     0.750450     0.250450     0.000000    Uiso  ? I
   I2         1.0     0.750450     0.250450     0.500000    Uiso  ? I
   I3         1.0     0.249550     0.749550     0.500000    Uiso  ? I
   I4         1.0     0.249550     0.749550     0.000000    Uiso  ? I
   I5         1.0     0.554534     0.945466     0.750000    Uiso  ? I
   I6         1.0     0.445466     0.054534     0.250000    Uiso  ? I
   I7         1.0     0.931621     0.568379     0.750000    Uiso  ? I
   I8         1.0     0.068379     0.431621     0.250000    Uiso  ? I
   I9         1.0     0.250314     0.249686     0.925855    Uiso  ? I
   I10        1.0     0.250314     0.249686     0.574145    Uiso  ? I
   I11        1.0     0.749686     0.750314     0.425855    Uiso  ? I
   I12        1.0     0.749686     0.750314     0.074145    Uiso  ? I
   N1         1.0     0.867725     0.052610     0.250000    Uiso  ? N
   N2         1.0     0.552610     0.367725     0.750000    Uiso  ? N
   N3         1.0     0.132275     0.947390     0.750000    Uiso  ? N
   N4         1.0     0.447390     0.632275     0.250000    Uiso  ? N
   C1         1.0     0.028990     0.994366     0.250000    Uiso  ? C
   C2         1.0     0.494366     0.528990     0.750000    Uiso  ? C
   C3         1.0     0.971010     0.005634     0.750000    Uiso  ? C
   C4         1.0     0.505634     0.471010     0.250000    Uiso  ? C
   H1         1.0     0.158571     0.880733     0.819720    Uiso  ? H
   H2         1.0     0.158571     0.880733     0.680280    Uiso  ? H
   H3         1.0     0.380733     0.658571     0.319720    Uiso  ? H
   H4         1.0     0.380733     0.658571     0.180280    Uiso  ? H
   H5         1.0     0.841429     0.119267     0.319720    Uiso  ? H
   H6         1.0     0.619267     0.341429     0.680280    Uiso  ? H
   H7         1.0     0.841429     0.119267     0.180280    Uiso  ? H
   H8         1.0     0.619267     0.341429     0.819720    Uiso  ? H
   H9         1.0     0.050124     0.924319     0.324352    Uiso  ? H
   H10        1.0     0.050124     0.924319     0.175648    Uiso  ? H
   H11        1.0     0.424319     0.550124     0.824352    Uiso  ? H
   H12        1.0     0.424319     0.550124     0.675648    Uiso  ? H
   H13        1.0     0.949876     0.075681     0.824352    Uiso  ? H
   H14        1.0     0.575681     0.449876     0.175648    Uiso  ? H
   H15        1.0     0.949876     0.075681     0.675648    Uiso  ? H
   H16        1.0     0.575681     0.449876     0.324352    Uiso  ? H
   H17        1.0     0.102920     0.092040     0.250000    Uiso  ? H
   H18        1.0     0.592040     0.602920     0.750000    Uiso  ? H
   H19        1.0     0.897080     0.907960     0.750000    Uiso  ? H
   H20        1.0     0.407960     0.397080     0.250000    Uiso  ? H
   H21        1.0     0.537403     0.705769     0.250000    Uiso  ? H
   H22        1.0     0.205769     0.037403     0.750000    Uiso  ? H
   H23        1.0     0.462597     0.294231     0.750000    Uiso  ? H
   H24        1.0     0.794231     0.962597     0.250000    Uiso  ? H
